# File generated by Flopy version 3.3.6 on 07/16/2022 at 18:03:08.
BEGIN options
END options

BEGIN griddata
  icelltype
    CONSTANT  1
  k
    CONSTANT       3.00000000
END griddata

