# File generated by Flopy version 3.3.6 on 07/16/2022 at 18:07:46.
BEGIN options
  PRINT_INPUT
  PRINT_FLOWS
  SAVE_FLOWS
END options

BEGIN dimensions
  MAXBOUND  1000
END dimensions

BEGIN period  1
  1 1 1      18.00000000       0.40000000
  1 2 1      18.00000000       0.40000000
  1 3 1      18.00000000       0.40000000
  1 4 1      18.00000000       0.40000000
  1 5 1      18.00000000       0.40000000
  1 6 1      18.00000000       0.40000000
  1 7 1      18.00000000       0.40000000
  1 8 1      18.00000000       0.40000000
  1 9 1      18.00000000       0.40000000
  1 10 1      18.00000000       0.40000000
  1 11 1      18.00000000       0.40000000
  1 12 1      18.00000000       0.40000000
  1 13 1      18.00000000       0.40000000
  1 14 1      18.00000000       0.40000000
  1 15 1      18.00000000       0.40000000
  1 16 1      18.00000000       0.40000000
  1 17 1      18.00000000       0.40000000
  1 18 1      18.00000000       0.40000000
  1 19 1      18.00000000       0.40000000
  1 20 1      18.00000000       0.40000000
  1 21 1      18.00000000       0.40000000
  1 22 1      18.00000000       0.40000000
  1 23 1      18.00000000       0.40000000
  1 24 1      18.00000000       0.40000000
  1 25 1      18.00000000       0.40000000
  1 26 1      18.00000000       0.40000000
  1 27 1      18.00000000       0.40000000
  1 28 1      18.00000000       0.40000000
  1 29 1      18.00000000       0.40000000
  1 30 1      18.00000000       0.40000000
  1 31 1      18.00000000       0.40000000
  1 32 1      18.00000000       0.40000000
  1 33 1      18.00000000       0.40000000
  1 34 1      18.00000000       0.40000000
  1 35 1      18.00000000       0.40000000
  1 36 1      18.00000000       0.40000000
  1 37 1      18.00000000       0.40000000
  1 38 1      18.00000000       0.40000000
  1 39 1      18.00000000       0.40000000
  1 40 1      18.00000000       0.40000000
  1 41 1      18.00000000       0.40000000
  1 42 1      18.00000000       0.40000000
  1 43 1      18.00000000       0.40000000
  1 44 1      18.00000000       0.40000000
  1 45 1      18.00000000       0.40000000
  1 46 1      18.00000000       0.40000000
  1 47 1      18.00000000       0.40000000
  1 48 1      18.00000000       0.40000000
  1 49 1      18.00000000       0.40000000
  1 50 1      18.00000000       0.40000000
  1 51 1      18.00000000       0.40000000
  1 52 1      18.00000000       0.40000000
  1 53 1      18.00000000       0.40000000
  1 54 1      18.00000000       0.40000000
  1 55 1      18.00000000       0.40000000
  1 56 1      18.00000000       0.40000000
  1 57 1      18.00000000       0.40000000
  1 58 1      18.00000000       0.40000000
  1 59 1      18.00000000       0.40000000
  1 60 1      18.00000000       0.40000000
  1 61 1      18.00000000       0.40000000
  1 62 1      18.00000000       0.40000000
  1 63 1      18.00000000       0.40000000
  1 64 1      18.00000000       0.40000000
  1 65 1      18.00000000       0.40000000
  1 66 1      18.00000000       0.40000000
  1 67 1      18.00000000       0.40000000
  1 68 1      18.00000000       0.40000000
  1 69 1      18.00000000       0.40000000
  1 70 1      18.00000000       0.40000000
  1 71 1      18.00000000       0.40000000
  1 72 1      18.00000000       0.40000000
  1 73 1      18.00000000       0.40000000
  1 74 1      18.00000000       0.40000000
  1 75 1      18.00000000       0.40000000
  1 76 1      18.00000000       0.40000000
  1 77 1      18.00000000       0.40000000
  1 78 1      18.00000000       0.40000000
  1 79 1      18.00000000       0.40000000
  1 80 1      18.00000000       0.40000000
  1 81 1      18.00000000       0.40000000
  1 82 1      18.00000000       0.40000000
  1 83 1      18.00000000       0.40000000
  1 84 1      18.00000000       0.40000000
  1 85 1      18.00000000       0.40000000
  1 86 1      18.00000000       0.40000000
  1 87 1      18.00000000       0.40000000
  1 88 1      18.00000000       0.40000000
  1 89 1      18.00000000       0.40000000
  1 90 1      18.00000000       0.40000000
  1 91 1      18.00000000       0.40000000
  1 92 1      18.00000000       0.40000000
  1 93 1      18.00000000       0.40000000
  1 94 1      18.00000000       0.40000000
  1 95 1      18.00000000       0.40000000
  1 96 1      18.00000000       0.40000000
  1 97 1      18.00000000       0.40000000
  1 98 1      18.00000000       0.40000000
  1 99 1      18.00000000       0.40000000
  1 100 1      18.00000000       0.40000000
  1 101 1      18.00000000       0.40000000
  1 102 1      18.00000000       0.40000000
  1 103 1      18.00000000       0.40000000
  1 104 1      18.00000000       0.40000000
  1 105 1      18.00000000       0.40000000
  1 106 1      18.00000000       0.40000000
  1 107 1      18.00000000       0.40000000
  1 108 1      18.00000000       0.40000000
  1 109 1      18.00000000       0.40000000
  1 110 1      18.00000000       0.40000000
  1 111 1      18.00000000       0.40000000
  1 112 1      18.00000000       0.40000000
  1 113 1      18.00000000       0.40000000
  1 114 1      18.00000000       0.40000000
  1 115 1      18.00000000       0.40000000
  1 116 1      18.00000000       0.40000000
  1 117 1      18.00000000       0.40000000
  1 118 1      18.00000000       0.40000000
  1 119 1      18.00000000       0.40000000
  1 120 1      18.00000000       0.40000000
  1 121 1      18.00000000       0.40000000
  1 122 1      18.00000000       0.40000000
  1 123 1      18.00000000       0.40000000
  1 124 1      18.00000000       0.40000000
  1 125 1      18.00000000       0.40000000
  1 126 1      18.00000000       0.40000000
  1 127 1      18.00000000       0.40000000
  1 128 1      18.00000000       0.40000000
  1 129 1      18.00000000       0.40000000
  1 130 1      18.00000000       0.40000000
  1 131 1      18.00000000       0.40000000
  1 132 1      18.00000000       0.40000000
  1 133 1      18.00000000       0.40000000
  1 134 1      18.00000000       0.40000000
  1 135 1      18.00000000       0.40000000
  1 136 1      18.00000000       0.40000000
  1 137 1      18.00000000       0.40000000
  1 138 1      18.00000000       0.40000000
  1 139 1      18.00000000       0.40000000
  1 140 1      18.00000000       0.40000000
  1 141 1      18.00000000       0.40000000
  1 142 1      18.00000000       0.40000000
  1 143 1      18.00000000       0.40000000
  1 144 1      18.00000000       0.40000000
  1 145 1      18.00000000       0.40000000
  1 146 1      18.00000000       0.40000000
  1 147 1      18.00000000       0.40000000
  1 148 1      18.00000000       0.40000000
  1 149 1      18.00000000       0.40000000
  1 150 1      18.00000000       0.40000000
  1 151 1      18.00000000       0.40000000
  1 152 1      18.00000000       0.40000000
  1 153 1      18.00000000       0.40000000
  1 154 1      18.00000000       0.40000000
  1 155 1      18.00000000       0.40000000
  1 156 1      18.00000000       0.40000000
  1 157 1      18.00000000       0.40000000
  1 158 1      18.00000000       0.40000000
  1 159 1      18.00000000       0.40000000
  1 160 1      18.00000000       0.40000000
  1 161 1      18.00000000       0.40000000
  1 162 1      18.00000000       0.40000000
  1 163 1      18.00000000       0.40000000
  1 164 1      18.00000000       0.40000000
  1 165 1      18.00000000       0.40000000
  1 166 1      18.00000000       0.40000000
  1 167 1      18.00000000       0.40000000
  1 168 1      18.00000000       0.40000000
  1 169 1      18.00000000       0.40000000
  1 170 1      18.00000000       0.40000000
  1 171 1      18.00000000       0.40000000
  1 172 1      18.00000000       0.40000000
  1 173 1      18.00000000       0.40000000
  1 174 1      18.00000000       0.40000000
  1 175 1      18.00000000       0.40000000
  1 176 1      18.00000000       0.40000000
  1 177 1      18.00000000       0.40000000
  1 178 1      18.00000000       0.40000000
  1 179 1      18.00000000       0.40000000
  1 180 1      18.00000000       0.40000000
  1 181 1      18.00000000       0.40000000
  1 182 1      18.00000000       0.40000000
  1 183 1      18.00000000       0.40000000
  1 184 1      18.00000000       0.40000000
  1 185 1      18.00000000       0.40000000
  1 186 1      18.00000000       0.40000000
  1 187 1      18.00000000       0.40000000
  1 188 1      18.00000000       0.40000000
  1 189 1      18.00000000       0.40000000
  1 190 1      18.00000000       0.40000000
  1 191 1      18.00000000       0.40000000
  1 192 1      18.00000000       0.40000000
  1 193 1      18.00000000       0.40000000
  1 194 1      18.00000000       0.40000000
  1 195 1      18.00000000       0.40000000
  1 196 1      18.00000000       0.40000000
  1 197 1      18.00000000       0.40000000
  1 198 1      18.00000000       0.40000000
  1 199 1      18.00000000       0.40000000
  1 200 1      18.00000000       0.40000000
  1 201 1      18.00000000       0.40000000
  1 202 1      18.00000000       0.40000000
  1 203 1      18.00000000       0.40000000
  1 204 1      18.00000000       0.40000000
  1 205 1      18.00000000       0.40000000
  1 206 1      18.00000000       0.40000000
  1 207 1      18.00000000       0.40000000
  1 208 1      18.00000000       0.40000000
  1 209 1      18.00000000       0.40000000
  1 210 1      18.00000000       0.40000000
  1 211 1      18.00000000       0.40000000
  1 212 1      18.00000000       0.40000000
  1 213 1      18.00000000       0.40000000
  1 214 1      18.00000000       0.40000000
  1 215 1      18.00000000       0.40000000
  1 216 1      18.00000000       0.40000000
  1 217 1      18.00000000       0.40000000
  1 218 1      18.00000000       0.40000000
  1 219 1      18.00000000       0.40000000
  1 220 1      18.00000000       0.40000000
  1 221 1      18.00000000       0.40000000
  1 222 1      18.00000000       0.40000000
  1 223 1      18.00000000       0.40000000
  1 224 1      18.00000000       0.40000000
  1 225 1      18.00000000       0.40000000
  1 226 1      18.00000000       0.40000000
  1 227 1      18.00000000       0.40000000
  1 228 1      18.00000000       0.40000000
  1 229 1      18.00000000       0.40000000
  1 230 1      18.00000000       0.40000000
  1 231 1      18.00000000       0.40000000
  1 232 1      18.00000000       0.40000000
  1 233 1      18.00000000       0.40000000
  1 234 1      18.00000000       0.40000000
  1 235 1      18.00000000       0.40000000
  1 236 1      18.00000000       0.40000000
  1 237 1      18.00000000       0.40000000
  1 238 1      18.00000000       0.40000000
  1 239 1      18.00000000       0.40000000
  1 240 1      18.00000000       0.40000000
  1 241 1      18.00000000       0.40000000
  1 242 1      18.00000000       0.40000000
  1 243 1      18.00000000       0.40000000
  1 244 1      18.00000000       0.40000000
  1 245 1      18.00000000       0.40000000
  1 246 1      18.00000000       0.40000000
  1 247 1      18.00000000       0.40000000
  1 248 1      18.00000000       0.40000000
  1 249 1      18.00000000       0.40000000
  1 250 1      18.00000000       0.40000000
  1 251 1      18.00000000       0.40000000
  1 252 1      18.00000000       0.40000000
  1 253 1      18.00000000       0.40000000
  1 254 1      18.00000000       0.40000000
  1 255 1      18.00000000       0.40000000
  1 256 1      18.00000000       0.40000000
  1 257 1      18.00000000       0.40000000
  1 258 1      18.00000000       0.40000000
  1 259 1      18.00000000       0.40000000
  1 260 1      18.00000000       0.40000000
  1 261 1      18.00000000       0.40000000
  1 262 1      18.00000000       0.40000000
  1 263 1      18.00000000       0.40000000
  1 264 1      18.00000000       0.40000000
  1 265 1      18.00000000       0.40000000
  1 266 1      18.00000000       0.40000000
  1 267 1      18.00000000       0.40000000
  1 268 1      18.00000000       0.40000000
  1 269 1      18.00000000       0.40000000
  1 270 1      18.00000000       0.40000000
  1 271 1      18.00000000       0.40000000
  1 272 1      18.00000000       0.40000000
  1 273 1      18.00000000       0.40000000
  1 274 1      18.00000000       0.40000000
  1 275 1      18.00000000       0.40000000
  1 276 1      18.00000000       0.40000000
  1 277 1      18.00000000       0.40000000
  1 278 1      18.00000000       0.40000000
  1 279 1      18.00000000       0.40000000
  1 280 1      18.00000000       0.40000000
  1 281 1      18.00000000       0.40000000
  1 282 1      18.00000000       0.40000000
  1 283 1      18.00000000       0.40000000
  1 284 1      18.00000000       0.40000000
  1 285 1      18.00000000       0.40000000
  1 286 1      18.00000000       0.40000000
  1 287 1      18.00000000       0.40000000
  1 288 1      18.00000000       0.40000000
  1 289 1      18.00000000       0.40000000
  1 290 1      18.00000000       0.40000000
  1 291 1      18.00000000       0.40000000
  1 292 1      18.00000000       0.40000000
  1 293 1      18.00000000       0.40000000
  1 294 1      18.00000000       0.40000000
  1 295 1      18.00000000       0.40000000
  1 296 1      18.00000000       0.40000000
  1 297 1      18.00000000       0.40000000
  1 298 1      18.00000000       0.40000000
  1 299 1      18.00000000       0.40000000
  1 300 1      18.00000000       0.40000000
  1 301 1      18.00000000       0.40000000
  1 302 1      18.00000000       0.40000000
  1 303 1      18.00000000       0.40000000
  1 304 1      18.00000000       0.40000000
  1 305 1      18.00000000       0.40000000
  1 306 1      18.00000000       0.40000000
  1 307 1      18.00000000       0.40000000
  1 308 1      18.00000000       0.40000000
  1 309 1      18.00000000       0.40000000
  1 310 1      18.00000000       0.40000000
  1 311 1      18.00000000       0.40000000
  1 312 1      18.00000000       0.40000000
  1 313 1      18.00000000       0.40000000
  1 314 1      18.00000000       0.40000000
  1 315 1      18.00000000       0.40000000
  1 316 1      18.00000000       0.40000000
  1 317 1      18.00000000       0.40000000
  1 318 1      18.00000000       0.40000000
  1 319 1      18.00000000       0.40000000
  1 320 1      18.00000000       0.40000000
  1 321 1      18.00000000       0.40000000
  1 322 1      18.00000000       0.40000000
  1 323 1      18.00000000       0.40000000
  1 324 1      18.00000000       0.40000000
  1 325 1      18.00000000       0.40000000
  1 326 1      18.00000000       0.40000000
  1 327 1      18.00000000       0.40000000
  1 328 1      18.00000000       0.40000000
  1 329 1      18.00000000       0.40000000
  1 330 1      18.00000000       0.40000000
  1 331 1      18.00000000       0.40000000
  1 332 1      18.00000000       0.40000000
  1 333 1      18.00000000       0.40000000
  1 334 1      18.00000000       0.40000000
  1 335 1      18.00000000       0.40000000
  1 336 1      18.00000000       0.40000000
  1 337 1      18.00000000       0.40000000
  1 338 1      18.00000000       0.40000000
  1 339 1      18.00000000       0.40000000
  1 340 1      18.00000000       0.40000000
  1 341 1      18.00000000       0.40000000
  1 342 1      18.00000000       0.40000000
  1 343 1      18.00000000       0.40000000
  1 344 1      18.00000000       0.40000000
  1 345 1      18.00000000       0.40000000
  1 346 1      18.00000000       0.40000000
  1 347 1      18.00000000       0.40000000
  1 348 1      18.00000000       0.40000000
  1 349 1      18.00000000       0.40000000
  1 350 1      18.00000000       0.40000000
  1 351 1      18.00000000       0.40000000
  1 352 1      18.00000000       0.40000000
  1 353 1      18.00000000       0.40000000
  1 354 1      18.00000000       0.40000000
  1 355 1      18.00000000       0.40000000
  1 356 1      18.00000000       0.40000000
  1 357 1      18.00000000       0.40000000
  1 358 1      18.00000000       0.40000000
  1 359 1      18.00000000       0.40000000
  1 360 1      18.00000000       0.40000000
  1 361 1      18.00000000       0.40000000
  1 362 1      18.00000000       0.40000000
  1 363 1      18.00000000       0.40000000
  1 364 1      18.00000000       0.40000000
  1 365 1      18.00000000       0.40000000
  1 366 1      18.00000000       0.40000000
  1 367 1      18.00000000       0.40000000
  1 368 1      18.00000000       0.40000000
  1 369 1      18.00000000       0.40000000
  1 370 1      18.00000000       0.40000000
  1 371 1      18.00000000       0.40000000
  1 372 1      18.00000000       0.40000000
  1 373 1      18.00000000       0.40000000
  1 374 1      18.00000000       0.40000000
  1 375 1      18.00000000       0.40000000
  1 376 1      18.00000000       0.40000000
  1 377 1      18.00000000       0.40000000
  1 378 1      18.00000000       0.40000000
  1 379 1      18.00000000       0.40000000
  1 380 1      18.00000000       0.40000000
  1 381 1      18.00000000       0.40000000
  1 382 1      18.00000000       0.40000000
  1 383 1      18.00000000       0.40000000
  1 384 1      18.00000000       0.40000000
  1 385 1      18.00000000       0.40000000
  1 386 1      18.00000000       0.40000000
  1 387 1      18.00000000       0.40000000
  1 388 1      18.00000000       0.40000000
  1 389 1      18.00000000       0.40000000
  1 390 1      18.00000000       0.40000000
  1 391 1      18.00000000       0.40000000
  1 392 1      18.00000000       0.40000000
  1 393 1      18.00000000       0.40000000
  1 394 1      18.00000000       0.40000000
  1 395 1      18.00000000       0.40000000
  1 396 1      18.00000000       0.40000000
  1 397 1      18.00000000       0.40000000
  1 398 1      18.00000000       0.40000000
  1 399 1      18.00000000       0.40000000
  1 400 1      18.00000000       0.40000000
  1 401 1      18.00000000       0.40000000
  1 402 1      18.00000000       0.40000000
  1 403 1      18.00000000       0.40000000
  1 404 1      18.00000000       0.40000000
  1 405 1      18.00000000       0.40000000
  1 406 1      18.00000000       0.40000000
  1 407 1      18.00000000       0.40000000
  1 408 1      18.00000000       0.40000000
  1 409 1      18.00000000       0.40000000
  1 410 1      18.00000000       0.40000000
  1 411 1      18.00000000       0.40000000
  1 412 1      18.00000000       0.40000000
  1 413 1      18.00000000       0.40000000
  1 414 1      18.00000000       0.40000000
  1 415 1      18.00000000       0.40000000
  1 416 1      18.00000000       0.40000000
  1 417 1      18.00000000       0.40000000
  1 418 1      18.00000000       0.40000000
  1 419 1      18.00000000       0.40000000
  1 420 1      18.00000000       0.40000000
  1 421 1      18.00000000       0.40000000
  1 422 1      18.00000000       0.40000000
  1 423 1      18.00000000       0.40000000
  1 424 1      18.00000000       0.40000000
  1 425 1      18.00000000       0.40000000
  1 426 1      18.00000000       0.40000000
  1 427 1      18.00000000       0.40000000
  1 428 1      18.00000000       0.40000000
  1 429 1      18.00000000       0.40000000
  1 430 1      18.00000000       0.40000000
  1 431 1      18.00000000       0.40000000
  1 432 1      18.00000000       0.40000000
  1 433 1      18.00000000       0.40000000
  1 434 1      18.00000000       0.40000000
  1 435 1      18.00000000       0.40000000
  1 436 1      18.00000000       0.40000000
  1 437 1      18.00000000       0.40000000
  1 438 1      18.00000000       0.40000000
  1 439 1      18.00000000       0.40000000
  1 440 1      18.00000000       0.40000000
  1 441 1      18.00000000       0.40000000
  1 442 1      18.00000000       0.40000000
  1 443 1      18.00000000       0.40000000
  1 444 1      18.00000000       0.40000000
  1 445 1      18.00000000       0.40000000
  1 446 1      18.00000000       0.40000000
  1 447 1      18.00000000       0.40000000
  1 448 1      18.00000000       0.40000000
  1 449 1      18.00000000       0.40000000
  1 450 1      18.00000000       0.40000000
  1 451 1      18.00000000       0.40000000
  1 452 1      18.00000000       0.40000000
  1 453 1      18.00000000       0.40000000
  1 454 1      18.00000000       0.40000000
  1 455 1      18.00000000       0.40000000
  1 456 1      18.00000000       0.40000000
  1 457 1      18.00000000       0.40000000
  1 458 1      18.00000000       0.40000000
  1 459 1      18.00000000       0.40000000
  1 460 1      18.00000000       0.40000000
  1 461 1      18.00000000       0.40000000
  1 462 1      18.00000000       0.40000000
  1 463 1      18.00000000       0.40000000
  1 464 1      18.00000000       0.40000000
  1 465 1      18.00000000       0.40000000
  1 466 1      18.00000000       0.40000000
  1 467 1      18.00000000       0.40000000
  1 468 1      18.00000000       0.40000000
  1 469 1      18.00000000       0.40000000
  1 470 1      18.00000000       0.40000000
  1 471 1      18.00000000       0.40000000
  1 472 1      18.00000000       0.40000000
  1 473 1      18.00000000       0.40000000
  1 474 1      18.00000000       0.40000000
  1 475 1      18.00000000       0.40000000
  1 476 1      18.00000000       0.40000000
  1 477 1      18.00000000       0.40000000
  1 478 1      18.00000000       0.40000000
  1 479 1      18.00000000       0.40000000
  1 480 1      18.00000000       0.40000000
  1 481 1      18.00000000       0.40000000
  1 482 1      18.00000000       0.40000000
  1 483 1      18.00000000       0.40000000
  1 484 1      18.00000000       0.40000000
  1 485 1      18.00000000       0.40000000
  1 486 1      18.00000000       0.40000000
  1 487 1      18.00000000       0.40000000
  1 488 1      18.00000000       0.40000000
  1 489 1      18.00000000       0.40000000
  1 490 1      18.00000000       0.40000000
  1 491 1      18.00000000       0.40000000
  1 492 1      18.00000000       0.40000000
  1 493 1      18.00000000       0.40000000
  1 494 1      18.00000000       0.40000000
  1 495 1      18.00000000       0.40000000
  1 496 1      18.00000000       0.40000000
  1 497 1      18.00000000       0.40000000
  1 498 1      18.00000000       0.40000000
  1 499 1      18.00000000       0.40000000
  1 500 1      18.00000000       0.40000000
  1 501 1      18.00000000       0.40000000
  1 502 1      18.00000000       0.40000000
  1 503 1      18.00000000       0.40000000
  1 504 1      18.00000000       0.40000000
  1 505 1      18.00000000       0.40000000
  1 506 1      18.00000000       0.40000000
  1 507 1      18.00000000       0.40000000
  1 508 1      18.00000000       0.40000000
  1 509 1      18.00000000       0.40000000
  1 510 1      18.00000000       0.40000000
  1 511 1      18.00000000       0.40000000
  1 512 1      18.00000000       0.40000000
  1 513 1      18.00000000       0.40000000
  1 514 1      18.00000000       0.40000000
  1 515 1      18.00000000       0.40000000
  1 516 1      18.00000000       0.40000000
  1 517 1      18.00000000       0.40000000
  1 518 1      18.00000000       0.40000000
  1 519 1      18.00000000       0.40000000
  1 520 1      18.00000000       0.40000000
  1 521 1      18.00000000       0.40000000
  1 522 1      18.00000000       0.40000000
  1 523 1      18.00000000       0.40000000
  1 524 1      18.00000000       0.40000000
  1 525 1      18.00000000       0.40000000
  1 526 1      18.00000000       0.40000000
  1 527 1      18.00000000       0.40000000
  1 528 1      18.00000000       0.40000000
  1 529 1      18.00000000       0.40000000
  1 530 1      18.00000000       0.40000000
  1 531 1      18.00000000       0.40000000
  1 532 1      18.00000000       0.40000000
  1 533 1      18.00000000       0.40000000
  1 534 1      18.00000000       0.40000000
  1 535 1      18.00000000       0.40000000
  1 536 1      18.00000000       0.40000000
  1 537 1      18.00000000       0.40000000
  1 538 1      18.00000000       0.40000000
  1 539 1      18.00000000       0.40000000
  1 540 1      18.00000000       0.40000000
  1 541 1      18.00000000       0.40000000
  1 542 1      18.00000000       0.40000000
  1 543 1      18.00000000       0.40000000
  1 544 1      18.00000000       0.40000000
  1 545 1      18.00000000       0.40000000
  1 546 1      18.00000000       0.40000000
  1 547 1      18.00000000       0.40000000
  1 548 1      18.00000000       0.40000000
  1 549 1      18.00000000       0.40000000
  1 550 1      18.00000000       0.40000000
  1 551 1      18.00000000       0.40000000
  1 552 1      18.00000000       0.40000000
  1 553 1      18.00000000       0.40000000
  1 554 1      18.00000000       0.40000000
  1 555 1      18.00000000       0.40000000
  1 556 1      18.00000000       0.40000000
  1 557 1      18.00000000       0.40000000
  1 558 1      18.00000000       0.40000000
  1 559 1      18.00000000       0.40000000
  1 560 1      18.00000000       0.40000000
  1 561 1      18.00000000       0.40000000
  1 562 1      18.00000000       0.40000000
  1 563 1      18.00000000       0.40000000
  1 564 1      18.00000000       0.40000000
  1 565 1      18.00000000       0.40000000
  1 566 1      18.00000000       0.40000000
  1 567 1      18.00000000       0.40000000
  1 568 1      18.00000000       0.40000000
  1 569 1      18.00000000       0.40000000
  1 570 1      18.00000000       0.40000000
  1 571 1      18.00000000       0.40000000
  1 572 1      18.00000000       0.40000000
  1 573 1      18.00000000       0.40000000
  1 574 1      18.00000000       0.40000000
  1 575 1      18.00000000       0.40000000
  1 576 1      18.00000000       0.40000000
  1 577 1      18.00000000       0.40000000
  1 578 1      18.00000000       0.40000000
  1 579 1      18.00000000       0.40000000
  1 580 1      18.00000000       0.40000000
  1 581 1      18.00000000       0.40000000
  1 582 1      18.00000000       0.40000000
  1 583 1      18.00000000       0.40000000
  1 584 1      18.00000000       0.40000000
  1 585 1      18.00000000       0.40000000
  1 586 1      18.00000000       0.40000000
  1 587 1      18.00000000       0.40000000
  1 588 1      18.00000000       0.40000000
  1 589 1      18.00000000       0.40000000
  1 590 1      18.00000000       0.40000000
  1 591 1      18.00000000       0.40000000
  1 592 1      18.00000000       0.40000000
  1 593 1      18.00000000       0.40000000
  1 594 1      18.00000000       0.40000000
  1 595 1      18.00000000       0.40000000
  1 596 1      18.00000000       0.40000000
  1 597 1      18.00000000       0.40000000
  1 598 1      18.00000000       0.40000000
  1 599 1      18.00000000       0.40000000
  1 600 1      18.00000000       0.40000000
  1 601 1      18.00000000       0.40000000
  1 602 1      18.00000000       0.40000000
  1 603 1      18.00000000       0.40000000
  1 604 1      18.00000000       0.40000000
  1 605 1      18.00000000       0.40000000
  1 606 1      18.00000000       0.40000000
  1 607 1      18.00000000       0.40000000
  1 608 1      18.00000000       0.40000000
  1 609 1      18.00000000       0.40000000
  1 610 1      18.00000000       0.40000000
  1 611 1      18.00000000       0.40000000
  1 612 1      18.00000000       0.40000000
  1 613 1      18.00000000       0.40000000
  1 614 1      18.00000000       0.40000000
  1 615 1      18.00000000       0.40000000
  1 616 1      18.00000000       0.40000000
  1 617 1      18.00000000       0.40000000
  1 618 1      18.00000000       0.40000000
  1 619 1      18.00000000       0.40000000
  1 620 1      18.00000000       0.40000000
  1 621 1      18.00000000       0.40000000
  1 622 1      18.00000000       0.40000000
  1 623 1      18.00000000       0.40000000
  1 624 1      18.00000000       0.40000000
  1 625 1      18.00000000       0.40000000
  1 626 1      18.00000000       0.40000000
  1 627 1      18.00000000       0.40000000
  1 628 1      18.00000000       0.40000000
  1 629 1      18.00000000       0.40000000
  1 630 1      18.00000000       0.40000000
  1 631 1      18.00000000       0.40000000
  1 632 1      18.00000000       0.40000000
  1 633 1      18.00000000       0.40000000
  1 634 1      18.00000000       0.40000000
  1 635 1      18.00000000       0.40000000
  1 636 1      18.00000000       0.40000000
  1 637 1      18.00000000       0.40000000
  1 638 1      18.00000000       0.40000000
  1 639 1      18.00000000       0.40000000
  1 640 1      18.00000000       0.40000000
  1 641 1      18.00000000       0.40000000
  1 642 1      18.00000000       0.40000000
  1 643 1      18.00000000       0.40000000
  1 644 1      18.00000000       0.40000000
  1 645 1      18.00000000       0.40000000
  1 646 1      18.00000000       0.40000000
  1 647 1      18.00000000       0.40000000
  1 648 1      18.00000000       0.40000000
  1 649 1      18.00000000       0.40000000
  1 650 1      18.00000000       0.40000000
  1 651 1      18.00000000       0.40000000
  1 652 1      18.00000000       0.40000000
  1 653 1      18.00000000       0.40000000
  1 654 1      18.00000000       0.40000000
  1 655 1      18.00000000       0.40000000
  1 656 1      18.00000000       0.40000000
  1 657 1      18.00000000       0.40000000
  1 658 1      18.00000000       0.40000000
  1 659 1      18.00000000       0.40000000
  1 660 1      18.00000000       0.40000000
  1 661 1      18.00000000       0.40000000
  1 662 1      18.00000000       0.40000000
  1 663 1      18.00000000       0.40000000
  1 664 1      18.00000000       0.40000000
  1 665 1      18.00000000       0.40000000
  1 666 1      18.00000000       0.40000000
  1 667 1      18.00000000       0.40000000
  1 668 1      18.00000000       0.40000000
  1 669 1      18.00000000       0.40000000
  1 670 1      18.00000000       0.40000000
  1 671 1      18.00000000       0.40000000
  1 672 1      18.00000000       0.40000000
  1 673 1      18.00000000       0.40000000
  1 674 1      18.00000000       0.40000000
  1 675 1      18.00000000       0.40000000
  1 676 1      18.00000000       0.40000000
  1 677 1      18.00000000       0.40000000
  1 678 1      18.00000000       0.40000000
  1 679 1      18.00000000       0.40000000