# File generated by Flopy version 3.3.4 on 02/21/2022 at 18:44:47.
BEGIN options
  SAVE_FLOWS
END options

BEGIN packages
  OC6  mf6_verif.oc  oc
  CHD6  mf6_verif.chd  chd_0
  NPF6  mf6_verif.npf  npf
  IC6  mf6_verif.ic  ic
  DIS6  mf6_verif.dis  dis
  WEL6  mf6_verif.wel  wel_0
END packages

