# File generated by Flopy version 3.3.6 on 07/16/2022 at 17:50:12.
BEGIN options
  COMPLEXITY  moderate
END options

BEGIN nonlinear
  OUTER_MAXIMUM  300
END nonlinear

BEGIN linear
  INNER_MAXIMUM  500
  LINEAR_ACCELERATION  bicgstab
END linear

