# File generated by Flopy version 3.3.6 on 07/16/2022 at 18:03:00.
BEGIN options
END options

BEGIN timing
  TDIS6  mf6_verif.tdis
END timing

BEGIN models
  gwf6  mf6_verif.nam  mf6_verif
END models

BEGIN exchanges
END exchanges

BEGIN solutiongroup  1
  ims6  mf6_verif.ims  mf6_verif
END solutiongroup  1

